39
	Energy:     312.6388751
C          3.71137        1.88103       -0.10849
C          4.11613        0.56663       -0.09603
C          2.97762       -0.21130        0.04652
C          2.33327        1.88623        0.02104
N          1.88124        0.60337        0.20681
C          1.60318        3.04152       -0.03019
C          0.11640        3.14675       -0.05288
N         -0.70580        2.11132       -0.25594
C         -1.96197        2.53290       -0.05429
C         -0.63411        4.30527        0.11075
C         -1.96783        3.91239        0.09968
C         -3.04027        1.72027        0.00906
C         -2.98464        0.21543       -0.00255
N         -1.89337       -0.57906        0.21509
C         -3.68476       -1.88417       -0.16056
C         -4.10632       -0.57279       -0.17505
C         -0.15764       -3.20612        0.00972
N          0.63377       -2.14318       -0.10373
C          1.89872       -2.52524        0.01517
C          1.94938       -3.91768        0.07410
C          0.62857       -4.35530        0.06871
C          3.04605       -1.58208        0.02497
C         -1.50251       -3.14546        0.04786
C         -2.31368       -1.86919        0.02448
H          4.36152        2.74224       -0.21716
H          5.13843        0.21986       -0.19289
H          2.14748        3.98192       -0.10514
H         -0.41755        1.16971       -0.55126
H         -0.26525        5.31517        0.25214
H         -2.82938        4.55732        0.23772
H         -4.02157        2.18004        0.10945
H         -4.31779       -2.75730       -0.26183
H         -5.12896       -0.23302       -0.28868
H          0.33161       -1.19260       -0.30419
H          2.83381       -4.54508        0.11803
H          0.28984       -5.38581        0.11288
H          4.03149       -2.03693       -0.05599
H         -2.05321       -4.08294        0.07968
Mg        -0.04328        0.13588        1.13296
